/*--------------------------------*- C++ -*----------------------------------*\
| =========                 |                                                 |
| \\      /  F ield         | OpenFOAM: The Open Source CFD Toolbox           |
|  \\    /   O peration     | Version:  2.2.2                                 |
|   \\  /    A nd           | Web:      www.OpenFOAM.org                      |
|    \\/     M anipulation  |                                                 |
\*---------------------------------------------------------------------------*/
FoamFile
{
    version     2.0;
    format      ascii;
    class       dictionary;
    object      blockMeshDict;
}
// * * * * * * * * * * * * * * * * * * * * * * * * * * * * * * * * * * * * * //

convertToMeters 1.2e-03;

vertices
(
(	0	0.176776695296637	0.176776695296637	)
(	0	0.176776695296637	-0.176776695296637	)
(	0	-0.176776695296637	-0.176776695296637	)
(	0	-0.176776695296637	0.176776695296637	)
(	0	0.353553390593274	0.353553390593274	)
(	0	0.353553390593274	-0.353553390593274	)
(	0	-0.353553390593274	-0.353553390593274	)
(	0	-0.353553390593274	0.353553390593274	)
(	0	1.06066017177982	1.06066017177982	)
(	0	1.06066017177982	-1.06066017177982	)
(	0	-1.06066017177982	-1.06066017177982	)
(	0	-1.06066017177982	1.06066017177982	)
(	300	3.0052038200428	3.0052038200428	)
(	300	3.0052038200428	-3.0052038200428	)
(	300	-3.0052038200428	-3.0052038200428	)
(	300	-3.0052038200428	3.0052038200428	)
(	300	6.01040764008565	6.01040764008565	)
(	300	6.01040764008565	-6.01040764008565	)
(	300	-6.01040764008565	-6.01040764008566	)
(	300	-6.01040764008566	6.01040764008565	)
(	300	18.0312229202570	18.0312229202570	)
(	300	18.0312229202570	-18.0312229202570	)
(	300	-18.0312229202570	-18.0312229202570	)
(	300	-18.0312229202570	18.0312229202570	)
(	600	7.2478445071621	7.2478445071621	)
(	600	7.2478445071621	-7.2478445071621	)
(	600	-7.2478445071621	-7.2478445071621	)
(	600	-7.2478445071621	7.2478445071621	)
(	600	14.49568901432420	14.49568901432420	)
(	600	14.49568901432420	-14.49568901432420	)
(	600	-14.49568901432420	-14.49568901432420	)
(	600	-14.49568901432420	14.49568901432420	)
(	600	43.4870670429727	43.4870670429727	)
(	600	43.4870670429727	-43.4870670429727	)
(	600	-43.4870670429727	-43.4870670429727	)
(	600	-43.4870670429727	43.4870670429727	)
(	1500	23.1577470838594	23.1577470838594	)
(	1500	23.1577470838594	-23.1577470838594	)
(	1500	-23.1577470838594	-23.1577470838594	)
(	1500	-23.1577470838594	23.1577470838594	)
(	1500	46.31549416771890	46.31549416771890	)
(	1500	46.31549416771890	-46.31549416771890	)
(	1500	-46.31549416771890	-46.31549416771890	)
(	1500	-46.31549416771890	46.31549416771890	)
(	1500	138.9464825031570	138.9464825031570	)
(	1500	138.9464825031570	-138.9464825031570	)
(	1500	-138.9464825031570	-138.9464825031570	)
(	1500	-138.9464825031570	138.9464825031570	)
(	-50	0.176776695296637	0.176776695296637	)
(	-50	0.176776695296637	-0.176776695296637	)
(	-50	-0.176776695296637	-0.176776695296637	)
(	-50	-0.176776695296637	0.176776695296637	)
(	-50	0.353553390593274	0.353553390593274	)
(	-50	0.353553390593274	-0.353553390593274	)
(	-50	-0.353553390593274	-0.353553390593274	)
(	-50	-0.353553390593274	0.353553390593274	)
);


blocks
(
    hex	(3 15 14 2 0 12 13 1)
    v1 (300 5 5)
    edgeGrading (17.0 17.0 17.0 17.0 1 1 1 1 1 1 1 1)

    hex	(0 12 13 1 4 16 17 5)
    v2 (300 5 3)
    edgeGrading (17.0 17.0 17.0 17.0 1 1 1 1 1.5 1.5 1.5 1.5)

    hex	(1 13 14 2 5 17 18 6)
    v3 (300 5 3)
    edgeGrading (17.0 17.0 17.0 17.0 1 1 1 1 1.5 1.5 1.5 1.5)

    hex	(2 14 15 3 6 18 19 7)
    v4 (300 5 3)
    edgeGrading (17.0 17.0 17.0 17.0 1 1 1 1 1.5 1.5 1.5 1.5)

    hex	(3 15 12 0 7 19 16 4)
    v5 (300 5 3)
    edgeGrading (17.0 17.0 17.0 17.0 1 1 1 1 1.5 1.5 1.5 1.5)

    hex	(4 16 17 5 8 20 21 9)
    v6 (300 5 5)
    edgeGrading (17.0 17.0 17.0 17.0 1 1 1 1 2 2 2 2)

    hex	(5 17 18 6 9 21 22 10)
    v7 (300 5 5)
    edgeGrading (17.0 17.0 17.0 17.0 1 1 1 1 2 2 2 2)

    hex	(6 18 19 7 10 22 23 11)
    v8 (300 5 5)
    edgeGrading (17.0 17.0 17.0 17.0 1 1 1 1 2 2 2 2)

    hex	(7 19 16 4 11 23 20 8)
    v9 (300 5 5)
    edgeGrading (17.0 17.0 17.0 17.0 1 1 1 1 2 2 2 2)

    // First Stop

    hex	(14 26 25 13 15 27 24 12)
    v10 (60 5 5)
    edgeGrading (2.41 2.41 2.41 2.41 1 1 1 1 1 1 1 1)

    hex	(12 24 25 13 16 28 29 17)
    v11 (60 5 3)
    edgeGrading (2.41 2.41 2.41 2.41 1 1 1 1 1.5 1.5 1.5 1.5)

    hex	(13 25 26 14 17 29 30 18)
    v12 (60 5 3)
    edgeGrading (2.41 2.41 2.41 2.41 1 1 1 1 1.5 1.5 1.5 1.5)

    hex	(14 26 27 15 18 30 31 19)
    v13 (60 5 3)
    edgeGrading (2.41 2.41 2.41 2.41 1 1 1 1 1.5 1.5 1.5 1.5)

    hex	(15 27 24 12 19 31 28 16)
    v14 (60 5 3)
    edgeGrading (2.41 2.41 2.41 2.41 1 1 1 1 1.5 1.5 1.5 1.5)

    hex	(16 28 29 17 20 32 33 21)
    v15 (60 5 5)
    edgeGrading (2.41 2.41 2.41 2.41 1 1 1 1 2 2 2 2)

    hex	(17 29 30 18 21 33 34 22)
    v16 (60 5 5)
    edgeGrading (2.41 2.41 2.41 2.41 1 1 1 1 2 2 2 2)

    hex	(18 30 31 19 22 34 35 23)
    v17 (60 5 5)
    edgeGrading (2.41 2.41 2.41 2.41 1 1 1 1 2 2 2 2)

    hex	(19 31 28 16 23 35 32 20)
    v18 (60 5 5)
    edgeGrading (2.41 2.41 2.41 2.41 1 1 1 1 2 2 2 2)

    // Second Stop

    hex	(26 38 37 25 27 39 36 24)
    v19 (60 5 5)
    edgeGrading (3.20 3.20 3.20 3.20 1 1 1 1 1 1 1 1)

    hex	(24 36 37 25 28 40 41 29)
    v20 (60 5 3)
    edgeGrading (3.20 3.20 3.20 3.20 1 1 1 1 1.5 1.5 1.5 1.5)

    hex	(25 37 38 26 29 41 42 30)
    v21 (60 5 3)
    edgeGrading (3.20 3.20 3.20 3.20 1 1 1 1 1.5 1.5 1.5 1.5)

    hex	(26 38 39 27 30 42 43 31)
    v22 (60 5 3)
    edgeGrading (3.20 3.20 3.20 3.20 1 1 1 1 1.5 1.5 1.5 1.5)

    hex	(27 39 36 24 31 43 40 28)
    v23 (60 5 3)
    edgeGrading (3.20 3.20 3.20 3.20 1 1 1 1 1.5 1.5 1.5 1.5)

    hex	(28 40 41 29 32 44 45 33)
    v24 (60 5 5)
    edgeGrading (3.20 3.20 3.20 3.20 1 1 1 1 2 2 2 2)

    hex	(29 41 42 30 33 45 46 34)
    v25 (60 5 5)
    edgeGrading (3.20 3.20 3.20 3.20 1 1 1 1 2 2 2 2)

    hex	(30 42 43 31 34 46 47 35)
    v26 (60 5 5)
    edgeGrading (3.20 3.20 3.20 3.20 1 1 1 1 2 2 2 2)

    hex	(31 43 40 28 35 47 44 32)
    v27 (60 5 5)
    edgeGrading (3.20 3.20 3.20 3.20 1 1 1 1 2 2 2 2)

    // Nozzle tube

    hex	(50 2 1 49 51 3 0 48)
    v28 (190 5 5)
    edgeGrading (0.5 0.5 0.5 0.5 1 1 1 1 1 1 1 1)

    hex	(48 0 1 49 52 4 5 53)
    v29 (190 5 3)
    edgeGrading (0.5 0.5 0.5 0.5 1 1 1 1 1.5 1.5 1.5 1.5)

    hex	(49 1 2 50 53 5 6 54)
    v30 (190 5 3)
    edgeGrading (0.5 0.5 0.5 0.5 1 1 1 1 1.5 1.5 1.5 1.5)

    hex	(50 2 3	51 54 6 7 55)
    v31 (190 5 3)
    edgeGrading (0.5 0.5 0.5 0.5 1 1 1 1 1.5 1.5 1.5 1.5)

    hex	(51 3 0 48 55 7 4 52)
    v32 (190 5 3)
    edgeGrading (0.5 0.5 0.5 0.5 1 1 1 1 1.5 1.5 1.5 1.5)
);


edges
(
arc	0	1	(	0	0.213388347648318	0	)
arc	1	2	(	0	0	-0.213388347648318	)
arc	2	3	(	0	-0.213388347648318	0	)
arc	3	0	(	0	0	0.213388347648318	)
arc	4	5	(	0	0.5	0	)
arc	5	6	(	0	0	-0.5	)
arc	6	7	(	0	-0.5	0	)
arc	7	4	(	0	0	0.5	)
arc	8	9	(	0	1.5	0	)
arc	9	10	(	0	0	-1.5	)
arc	10	11	(	0	-1.5	0	)
arc	11	8	(	0	0	1.5	)
arc	12	13	(	300	3.62760191002141	0	)
arc	13	14	(	300	0	-3.62760191002141	)
arc	14	15	(	300	-3.62760191002141	0	)
arc	15	12	(	300	0	3.62760191002141	)
arc	16	17	(	300	8.50000000000000	0	)
arc	17	18	(	300	0	-8.50000000000000	)
arc	18	19	(	300	-8.50000000000000	0	)
arc	19	16	(	300	0	8.50000000000000	)
arc	20	21	(	300	25.5	0	)
arc	21	22	(	300	0	-25.5	)
arc	22	23	(	300	-25.5	0	)
arc	23	20	(	300	0	25.5	)
arc	24	25	(	600	8.74892225358106	0	)
arc	25	26	(	600	0	-8.74892225358106	)
arc	26	27	(	600	-8.74892225358106	0	)
arc	27	24	(	600	0	8.74892225358106	)
arc	28	29	(	600	20.50000000000000	0	)
arc	29	30	(	600	0	-20.50000000000000	)
arc	30	31	(	600	-20.50000000000000	0	)
arc	31	28	(	600	0	20.50000000000000	)
arc	32	33	(	600	61.5	0	)
arc	33	34	(	600	0	-61.5	)
arc	34	35	(	600	-61.5	0	)
arc	35	32	(	600	0	61.5	)
arc	36	37	(	1500	27.9538735419297	0	)
arc	37	38	(	1500	0	-27.9538735419297	)
arc	38	39	(	1500	-27.9538735419297	0	)
arc	39	36	(	1500	0	27.9538735419297	)
arc	40	41	(	1500	65.5000000000000	0	)
arc	41	42	(	1500	0	-65.5000000000000	)
arc	42	43	(	1500	-65.5000000000000	0	)
arc	43	40	(	1500	0	65.5000000000000	)
arc	44	45	(	1500	196.5	0	)
arc	45	46	(	1500	0	-196.5	)
arc	46	47	(	1500	-196.5	0	)
arc	47	44	(	1500	0	196.5	)
arc	48	49	(	-50	0.213388347648318	0	)
arc	49	50	(	-50	0	-0.213388347648318	)
arc	50	51	(	-50	-0.213388347648318	0	)
arc	51	48	(	-50	0	0.213388347648318	)
arc	52	53	(	-50	0.5	0	)
arc	53	54	(	-50	0	-0.5	)
arc	54	55	(	-50	-0.5	0	)
arc	55	52	(	-50	0	0.5	)
);

boundary
(
    nozzleWall
    {
        type wall;
        faces
        (
	    (52 4 5 53)
	    (53 5 6 54)
	    (54 6 7 55)
	    (55 7 4 52)
	    //(4 8 9 5) //new wall
	    //(5 9 10 6) //new wall
	    //(6 10 11 7) //new wall
	    //(7 11 8 4) //new wall
        );
    }

    nozzleWallext
    {
        type wall;
        faces
        (
	    (4 8 9 5) //new wall
	    (5 9 10 6) //new wall
	    (6 10 11 7) //new wall
	    (7 11 8 4) //new wall
        );
    }

    inlet
    {
        type patch;
        faces
        (
            (48 49 50 51)
            (48 52 53 49)
            (49 53 54 50)
            (50 54 55 51)
            (51 55 52 48)
        );
    }

    atmosphere
    {
        type patch;
        faces
        (
            (8 20 21 9)
            (9 21 22 10)
            (10 22 23 11)
            (11 23 20 8)
            (20 32 33 21)
            (21 33 34 22)
            (22	34 35 23)
            (23	35 32 20)
            (32	44 45 33)
            (33	45 46 34)
            (34	46 47 35)
            (35	47 44 32)
            (39	38 37 36)
            (37	41 40 36)
            (38	42 41 37)
            (39 43 42 38)
            (36	40 43 39)
            (41	45 44 40)
            (42	46 45 41)
            (43	47 46 42)
            (40	44 47 43)
        );
    }

    /*atmoutlet
    {
        type patch;
        faces
        (
            (39	38 37 36)
            (37	41 40 36)
            (38	42 41 37)
            (39 43 42 38)
            (36	40 43 39)
            (41	45 44 40)
            (42	46 45 41)
            (43	47 46 42)
            (40	44 47 43)
        );
    }*/

);

mergePatchPairs
(
);

// ************************************************************************* //
