/*--------------------------------*- C++ -*----------------------------------*\
| =========                 |                                                 |
| \\      /  F ield         | OpenFOAM: The Open Source CFD Toolbox           |
|  \\    /   O peration     | Version:  2.3.0                                 |
|   \\  /    A nd           | Web:      www.OpenFOAM.org                      |
|    \\/     M anipulation  |                                                 |
\*---------------------------------------------------------------------------*/
FoamFile
{
    version     2.0;
    format      ascii;
    class       dictionary;
    location    "system";
    object      topoSetDict;
}
// * * * * * * * * * * * * * * * * * * * * * * * * * * * * * * * * * * * * * //

actions
(
    
    //------------------
    
    {
        name R2;
        type cellSet;
        action new;
        source zoneToCell;
        sourceInfo
        {
            name ".*v10";
        }
    }
    
    
    //------------------
    
    {
        name R2;
        type cellSet;
        action add;
        source zoneToCell;
        sourceInfo
        {
            name ".*v19";
        }
    }
    
    
    
);

// ************************************************************************* //
