/*--------------------------------*- C++ -*----------------------------------*\
| =========                 |                                                 |
| \\      /  F ield         | OpenFOAM: The Open Source CFD Toolbox           |
|  \\    /   O peration     | Version:  2.2.2                                 |
|   \\  /    A nd           | Web:      www.OpenFOAM.org                      |
|    \\/     M anipulation  |                                                 |
\*---------------------------------------------------------------------------*/
FoamFile
{
    version     2.0;
    format      ascii;
    class       dictionary;
    location    "constant";
    object      RASProperties;
}
// * * * * * * * * * * * * * * * * * * * * * * * * * * * * * * * * * * * * * //

//RASModel        rhokEpsilon;
//RASModel        rhorealizableKE;
//RASModel        rhoLaunderGibsonRSTM;
RASModel        rhoLGepsilon;

turbulence      on;

printCoeffs     on;

/*rhokEpsilonCoeffs
        {
            Cmu         0.09;
            C1          1.60; //1.44
            C2          1.92;
            C3          0.00;
            C4          1.00;
            C5         -1.00;
            sigmaEps    1.3;
        }*/

/*rhorealizableKECoeffs
        {
            Cmu         0.09;
            A0          4.0;
            C2          1.9;
            C4          1.0;
            C5         -1.0;
            sigmak      1.0;
            sigmaEps    1.2;
        }*/

/*rhoLaunderGibsonRSTMCoeffs
        {
            Cmu         0.09;
            kappa       0.41;
            Clg1        1.8;
            Clg2        0.6;
            Clg3        0.75; // default 0.75
            C1          1.60; // default 1.44
            C2          1.92;
            C3          0.0;
            C4          1.0;
            C5         -1.0;
            C1Ref       0.5;
            C2Ref       0.3;
            Cs          0.22;
            Ceps        0.15;
            sigmaEps    1.30;
            sigmaR      0.82;
            couplingFactor  0.0;
        }*/

rhoLGepsilonCoeffs
        {
            Cmu         0.09;
            kappa       0.41;
            Clg1        1.8;
            Clg2        0.6;
            Clg3        0.75; // default 0.75
            C1          1.60; // default 1.44
            C2          1.92;
            C3          0.0;
            C4          1.0;
            C5         -1.0;
            C1Ref       0.5;
            C2Ref       0.3;
            Cs          0.22;
            Ceps        0.15;
            sigmaEps    1.30;
            sigmaR      0.82;
            couplingFactor  0.0;
        }

// ************************************************************************* //
